Version 4
SHEET 1 1628 1444
WIRE 112 16 112 -16
WIRE 80 32 48 32
WIRE -80 48 -80 0
WIRE 240 48 144 48
WIRE -96 64 -320 64
WIRE 80 64 -48 64
WIRE 112 112 112 80
WIRE 368 112 368 80
WIRE -80 128 -80 80
WIRE 240 128 240 48
WIRE 336 128 240 128
WIRE 528 144 400 144
WIRE 336 160 240 160
WIRE 112 208 112 192
WIRE 80 224 32 224
WIRE 240 240 240 160
WIRE 240 240 144 240
WIRE 368 240 368 176
WIRE -320 256 -320 64
WIRE 80 256 -320 256
WIRE 112 320 112 272
WIRE 112 480 112 448
WIRE 80 496 32 496
WIRE -80 512 -80 464
WIRE 272 512 144 512
WIRE -320 528 -320 256
WIRE -96 528 -320 528
WIRE 80 528 -48 528
WIRE -80 592 -80 544
WIRE 112 592 112 544
WIRE 400 608 400 576
WIRE 272 624 272 512
WIRE 368 624 272 624
WIRE -320 640 -320 528
WIRE -320 640 -448 640
WIRE 560 640 432 640
WIRE 368 656 272 656
WIRE 112 736 112 704
WIRE 400 736 400 672
WIRE 80 752 48 752
WIRE 272 768 272 656
WIRE 272 768 144 768
WIRE -320 784 -320 640
WIRE 80 784 -320 784
WIRE 112 864 112 800
WIRE 112 1024 112 992
WIRE 80 1040 16 1040
WIRE -80 1056 -80 1008
WIRE 272 1056 144 1056
WIRE -320 1072 -320 784
WIRE -96 1072 -320 1072
WIRE 80 1072 -48 1072
WIRE 112 1120 112 1088
WIRE 400 1120 400 1088
WIRE 272 1136 272 1056
WIRE 368 1136 272 1136
WIRE -80 1152 -80 1088
WIRE 544 1152 432 1152
WIRE 368 1168 272 1168
WIRE 112 1248 112 1232
WIRE 400 1248 400 1184
WIRE 80 1264 16 1264
WIRE 272 1280 272 1168
WIRE 272 1280 144 1280
WIRE -320 1296 -320 1072
WIRE 80 1296 -320 1296
WIRE 112 1360 112 1312
FLAG -448 640 sel
FLAG 528 144 o1
FLAG 560 640 o2
FLAG 544 1152 o3
FLAG 48 32 a1
FLAG 32 496 a2
FLAG 16 1040 a3
FLAG 32 224 b1
FLAG 48 752 b2
FLAG 16 1264 b3
FLAG 400 1248 vss
FLAG 112 448 vdd
FLAG -80 0 vdd
FLAG 400 576 vdd
FLAG -80 1008 vdd
FLAG 400 1088 vdd
FLAG 112 1232 vdd
FLAG 112 704 vdd
FLAG 112 -16 vdd
FLAG 368 80 vdd
FLAG -80 464 vdd
FLAG 112 992 vdd
FLAG 112 192 vdd
FLAG -80 1152 vss
FLAG 112 1360 vss
FLAG 112 1120 vss
FLAG 112 864 vss
FLAG 112 592 vss
FLAG 400 736 vss
FLAG -80 592 vss
FLAG 112 320 vss
FLAG 112 112 vss
FLAG 368 240 vss
FLAG -80 128 vss
SYMBOL nand 112 48 R0
SYMATTR InstName X1
SYMATTR SpiceLine ll=180n wn={nnw} wp={nnw*mp}
SYMBOL nand 112 240 R0
SYMATTR InstName X2
SYMATTR SpiceLine ll=180n wn={nnw} wp={nnw*mp}
SYMBOL nand 368 144 R0
SYMATTR InstName X3
SYMATTR SpiceLine ll=180n wn={nnw} wp={nnw*mp}
SYMBOL nand 112 512 R0
SYMATTR InstName X4
SYMATTR SpiceLine ll=180n wn={nnw} wp={nnw*mp}
SYMBOL nand 112 768 R0
SYMATTR InstName X5
SYMATTR SpiceLine ll=180n wn={nnw} wp={nnw*mp}
SYMBOL nand 400 640 R0
SYMATTR InstName X6
SYMATTR SpiceLine ll=180n wn={nnw} wp={nnw*mp}
SYMBOL nand 112 1056 R0
SYMATTR InstName X7
SYMATTR SpiceLine ll=180n wn={nnw} wp={nnw*mp}
SYMBOL nand 112 1280 R0
SYMATTR InstName X8
SYMATTR SpiceLine ll=180n wn={nnw} wp={nnw*mp}
SYMBOL nand 400 1152 R0
SYMATTR InstName X9
SYMATTR SpiceLine ll=180n wn={nnw} wp={nnw*mp}
SYMBOL inv -80 64 R0
SYMATTR InstName X10
SYMATTR SpiceLine ll=180n wn={nnw} wp={nnw*mp}
SYMBOL inv -80 528 R0
SYMATTR InstName X11
SYMATTR SpiceLine ll=180n wn={nnw} wp={nnw*mp}
SYMBOL inv -80 1072 R0
SYMATTR InstName X12
SYMATTR SpiceLine ll=180n wn={nnw} wp={nnw*mp}
