Version 4
SHEET 1 1192 1060
WIRE -1040 -48 -1040 -64
WIRE -1040 48 -1040 -48
WIRE -1040 48 -1248 48
WIRE -848 48 -1040 48
WIRE -1248 176 -1248 48
WIRE -1184 176 -1248 176
WIRE -848 176 -848 48
WIRE -768 176 -848 176
WIRE -1248 192 -1248 176
WIRE -848 192 -848 176
WIRE -1184 240 -1184 176
WIRE -1184 240 -1248 240
WIRE -768 240 -768 176
WIRE -768 240 -848 240
WIRE -1296 272 -1408 272
WIRE -896 352 -896 272
WIRE -896 352 -1344 352
WIRE -1408 400 -1408 272
WIRE -1408 400 -1520 400
WIRE -1248 416 -1248 288
WIRE -1040 416 -1248 416
WIRE -848 416 -848 288
WIRE -848 416 -1040 416
WIRE -1040 464 -1040 416
WIRE -800 464 -1040 464
WIRE -768 464 -800 464
WIRE -1040 512 -1040 464
WIRE -1344 528 -1344 352
WIRE -1344 528 -1520 528
WIRE -912 560 -1040 560
WIRE -1408 592 -1408 400
WIRE -1088 592 -1408 592
WIRE -1040 624 -1040 608
WIRE -912 624 -912 560
WIRE -912 624 -1040 624
WIRE -1040 688 -1040 624
WIRE -912 736 -1040 736
WIRE -1344 768 -1344 528
WIRE -1088 768 -1344 768
WIRE -1040 800 -1040 784
WIRE -912 800 -912 736
WIRE -912 800 -1040 800
WIRE -1040 976 -1040 800
FLAG -1040 -48 vdd
FLAG -1040 976 vss
FLAG -800 464 Q
FLAG -1520 400 in1
FLAG -1520 528 in2
SYMBOL pmos018 -1296 192 R0
SYMATTR InstName M1
SYMATTR Value2 l={ll} w={wp} ad={450n*{wp}} as={450n*{wp}} pd={900n+{wp}} ps={1080n+{wp}}
SYMBOL pmos018 -896 192 R0
SYMATTR InstName M2
SYMATTR Value2 l={ll} w={wp} ad={450n*{wp}} as={450n*{wp}} pd={900n+{wp}} ps={1080n+{wp}}
SYMBOL nmos018 -1088 512 R0
SYMATTR InstName M3
SYMATTR Value2 l={ll} w={wn} ad={450n*{wn}} as={450n*{wn}} pd={900n+{wn}} ps={1080n+{wn}}
SYMBOL nmos018 -1088 688 R0
SYMATTR InstName M4
SYMATTR Value2 l={ll} w={wn} ad={450n*{wn}} as={450n*{wn}} pd={900n+{wn}} ps={1080n+{wn}}
TEXT -1512 112 Left 2 !.lib BU_180nm.lib
TEXT -680 208 Left 2 ;Parametres requis: \nll=longueur \nwn=largeur_nmos \nwp=largeur_pmos
