Version 4
SHEET 1 1192 776
WIRE -1040 -336 -1040 -384
WIRE -944 -336 -1040 -336
WIRE -944 -288 -944 -336
WIRE -944 -288 -1040 -288
WIRE -1088 -256 -1296 -256
WIRE -1040 -176 -1040 -240
WIRE -960 -176 -1040 -176
WIRE -1040 -160 -1040 -176
WIRE -960 -112 -960 -176
WIRE -960 -112 -1040 -112
WIRE -1296 -80 -1296 -256
WIRE -1296 -80 -1376 -80
WIRE -1088 -80 -1232 -80
WIRE -1040 -32 -1040 -64
WIRE -592 -32 -1040 -32
WIRE -1232 32 -1232 -80
WIRE -1232 32 -1376 32
WIRE -1040 32 -1040 -32
WIRE -1040 32 -1120 32
WIRE -848 32 -1040 32
WIRE -1120 80 -1120 32
WIRE -848 80 -848 32
WIRE -1024 128 -1120 128
WIRE -736 128 -848 128
WIRE -1296 160 -1296 -80
WIRE -1168 160 -1296 160
WIRE -1120 192 -1120 176
WIRE -1024 192 -1024 128
WIRE -1024 192 -1120 192
WIRE -848 192 -848 176
WIRE -736 192 -736 128
WIRE -736 192 -848 192
WIRE -1232 224 -1232 32
WIRE -896 224 -896 160
WIRE -896 224 -1232 224
WIRE -1120 272 -1120 192
WIRE -976 272 -1120 272
WIRE -848 272 -848 192
WIRE -848 272 -976 272
WIRE -976 384 -976 272
FLAG -1040 -384 vdd
FLAG -976 384 vss
FLAG -592 -32 Q
FLAG -1376 -80 in1
FLAG -1376 32 in2
SYMBOL pmos018 -1088 -336 R0
SYMATTR InstName M1
SYMATTR Value2 l={ll} w={wp} ad={450n*{wp}} as={450n*{wp}} pd={900n+{wp}} ps={1080n+{wp}}
SYMBOL pmos018 -1088 -160 R0
SYMATTR InstName M2
SYMATTR Value2 l={ll} w={wp} ad={450n*{wp}} as={450n*{wp}} pd={900n+{wp}} ps={1080n+{wp}}
SYMBOL nmos018 -1168 80 R0
SYMATTR InstName M3
SYMATTR Value2 l={ll} w={wn} ad={450n*{wn}} as={450n*{wn}} pd={900n+{wn}} ps={1080n+{wn}}
SYMBOL nmos018 -896 80 R0
SYMATTR InstName M4
SYMATTR Value2 l={ll} w={wn} ad={450n*{wn}} as={450n*{wn}} pd={900n+{wn}} ps={1080n+{wn}}
TEXT -1328 -360 Left 2 !.lib BU_180nm.lib
TEXT -800 -272 Left 2 ;Parametres requis: \nll=longueur \nwn=largeur_nmos \nwp=largeur_pmos
