Version 4
SHEET 1 1192 776
WIRE -112 -368 -112 -464
WIRE 0 -368 -112 -368
WIRE -112 -352 -112 -368
WIRE 0 -304 0 -368
WIRE 0 -304 -112 -304
WIRE -160 -272 -496 -272
WIRE -112 -176 -112 -256
WIRE -16 -176 -112 -176
WIRE -112 -160 -112 -176
WIRE -16 -112 -16 -176
WIRE -16 -112 -112 -112
WIRE -160 -80 -464 -80
WIRE -496 0 -496 -272
WIRE -496 0 -560 0
WIRE -416 0 -496 0
WIRE -112 0 -112 -64
WIRE 400 0 -112 0
WIRE -112 64 -112 0
WIRE -112 64 -320 64
WIRE 96 64 -112 64
WIRE -464 112 -464 -80
WIRE -464 112 -560 112
WIRE -320 112 -320 64
WIRE 96 112 96 64
WIRE -224 160 -320 160
WIRE 192 160 96 160
WIRE -416 192 -416 0
WIRE -368 192 -416 192
WIRE 48 192 -144 192
WIRE -320 224 -320 208
WIRE -224 224 -224 160
WIRE -224 224 -320 224
WIRE 96 224 96 208
WIRE 192 224 192 160
WIRE 192 224 96 224
WIRE -464 256 -464 112
WIRE -144 256 -144 192
WIRE -144 256 -464 256
WIRE -320 288 -320 224
WIRE -112 288 -320 288
WIRE 96 288 96 224
WIRE 96 288 -112 288
WIRE -112 384 -112 288
FLAG -112 -464 vdd
FLAG -112 384 vss
FLAG 400 0 Q
FLAG -560 0 in1
FLAG -560 112 in2
SYMBOL pmos018 -160 -352 R0
SYMATTR InstName M1
SYMATTR Value2 l={ll} w={wp} ad={450n*{wp}} as={450n*{wp}} pd={900n+{wp}} ps={1080n+{wp}}
SYMBOL pmos018 -160 -160 R0
SYMATTR InstName M2
SYMATTR Value2 l={ll} w={wp} ad={450n*{wp}} as={450n*{wp}} pd={900n+{wp}} ps={1080n+{wp}}
SYMBOL nmos018 -368 112 R0
SYMATTR InstName M3
SYMATTR Value2 l={ll} w={wn} ad={450n*{wn}} as={450n*{wn}} pd={900n+{wn}} ps={1080n+{wn}}
SYMBOL nmos018 48 112 R0
SYMATTR InstName M4
SYMATTR Value2 l={ll} w={wn} ad={450n*{wn}} as={450n*{wn}} pd={900n+{wn}} ps={1080n+{wn}}
TEXT -480 -552 Left 2 !.lib BU_180nm.lib
TEXT 216 -456 Left 2 ;Parametres requis: \nll=longueur \nwn=largeur_nmos \nwp=largeur_pmos
