Version 4
SHEET 1 1192 788
WIRE -672 -416 -784 -416
WIRE -480 -416 -480 -464
WIRE -480 -416 -672 -416
WIRE -400 -416 -480 -416
WIRE -320 -416 -400 -416
WIRE -176 -416 -320 -416
WIRE -672 -336 -672 -416
WIRE -592 -336 -672 -336
WIRE -320 -336 -320 -416
WIRE -224 -336 -320 -336
WIRE -592 -288 -592 -336
WIRE -592 -288 -672 -288
WIRE -224 -288 -224 -336
WIRE -224 -288 -320 -288
WIRE -720 -256 -864 -256
WIRE -368 -256 -432 -256
WIRE -672 -192 -672 -240
WIRE -496 -192 -672 -192
WIRE -320 -192 -320 -240
WIRE -320 -192 -496 -192
WIRE -480 -160 -976 -160
WIRE -432 -160 -432 -256
WIRE -432 -160 -480 -160
WIRE -496 -128 -496 -192
WIRE -496 -128 -672 -128
WIRE -320 -128 -496 -128
WIRE -672 -80 -672 -128
WIRE -608 -80 -672 -80
WIRE -400 -80 -400 -416
WIRE -400 -80 -432 -80
WIRE -320 -80 -320 -128
WIRE -240 -80 -320 -80
WIRE -608 -32 -608 -80
WIRE -608 -32 -672 -32
WIRE -240 -32 -240 -80
WIRE -240 -32 -320 -32
WIRE -864 -16 -864 -256
WIRE -864 -16 -1104 -16
WIRE -784 -16 -784 -416
WIRE -432 -16 -432 -80
WIRE -864 0 -864 -16
WIRE -800 0 -864 0
WIRE -720 0 -752 0
WIRE -480 0 -480 -160
WIRE -448 0 -480 0
WIRE -368 0 -400 0
WIRE -672 80 -672 16
WIRE -512 80 -672 80
WIRE -320 80 -320 16
WIRE -320 80 -512 80
WIRE -512 128 -512 80
WIRE -48 128 -512 128
WIRE -176 176 -176 -416
WIRE -176 176 -448 176
WIRE -512 224 -512 128
WIRE -512 224 -672 224
WIRE -304 224 -512 224
WIRE -672 288 -672 224
WIRE -304 288 -304 224
WIRE -432 304 -432 16
WIRE -432 304 -496 304
WIRE -976 336 -976 -160
WIRE -976 336 -1104 336
WIRE -608 336 -672 336
WIRE -224 336 -304 336
WIRE -448 352 -448 176
WIRE -864 368 -864 0
WIRE -720 368 -864 368
WIRE -464 368 -560 368
WIRE -352 368 -416 368
WIRE -496 384 -496 304
WIRE -448 384 -496 384
WIRE -672 400 -672 384
WIRE -608 400 -608 336
WIRE -608 400 -672 400
WIRE -304 400 -304 384
WIRE -224 400 -224 336
WIRE -224 400 -304 400
WIRE -864 432 -864 368
WIRE -560 432 -560 368
WIRE -560 432 -864 432
WIRE -176 448 -176 176
WIRE -176 448 -448 448
WIRE -672 480 -672 400
WIRE -304 480 -304 400
WIRE -624 528 -672 528
WIRE -224 528 -304 528
WIRE -448 544 -448 448
WIRE -976 560 -976 336
WIRE -864 560 -976 560
WIRE -720 560 -864 560
WIRE -464 560 -544 560
WIRE -352 560 -416 560
WIRE -304 592 -304 576
WIRE -224 592 -224 528
WIRE -224 592 -304 592
WIRE -672 608 -672 576
WIRE -624 608 -624 528
WIRE -624 608 -672 608
WIRE -784 640 -784 16
WIRE -672 640 -672 608
WIRE -672 640 -784 640
WIRE -496 640 -496 384
WIRE -496 640 -672 640
WIRE -464 640 -496 640
WIRE -448 640 -448 576
WIRE -448 640 -464 640
WIRE -304 640 -304 592
WIRE -304 640 -448 640
WIRE -864 688 -864 560
WIRE -544 688 -544 560
WIRE -544 688 -864 688
WIRE -464 704 -464 640
FLAG -1104 -16 in1
FLAG -1104 336 in2
FLAG -464 704 vss
FLAG -480 -464 vdd
FLAG -48 128 Q
SYMBOL pmos018 -720 -336 R0
SYMATTR InstName M1
SYMATTR Value2 l={ll} w={wp} ad={450n*{wp}} as={450n*{wp}} pd={900n+{wp}} ps={1080n+{wp}}
SYMBOL pmos018 -368 -336 R0
SYMATTR InstName M2
SYMATTR Value2 l={ll} w={wp} ad={450n*{wp}} as={450n*{wp}} pd={900n+{wp}} ps={1080n+{wp}}
SYMBOL pmos018 -720 -80 R0
SYMATTR InstName M3
SYMATTR Value2 l={ll} w={wp} ad={450n*{wp}} as={450n*{wp}} pd={900n+{wp}} ps={1080n+{wp}}
SYMBOL pmos018 -368 -80 R0
SYMATTR InstName M4
SYMATTR Value2 l={ll} w={wp} ad={450n*{wp}} as={450n*{wp}} pd={900n+{wp}} ps={1080n+{wp}}
SYMBOL nmos018 -720 288 R0
SYMATTR InstName M5
SYMATTR Value2 l={ll} w={wn} ad={450n*{wn}} as={450n*{wn}} pd={900n+{wn}} ps={1080n+{wn}}
SYMBOL nmos018 -352 288 R0
SYMATTR InstName M6
SYMATTR Value2 l={ll} w={wn} ad={450n*{wn}} as={450n*{wn}} pd={900n+{wn}} ps={1080n+{wn}}
SYMBOL nmos018 -720 480 R0
SYMATTR InstName M7
SYMATTR Value2 l={ll} w={wn} ad={450n*{wn}} as={450n*{wn}} pd={900n+{wn}} ps={1080n+{wn}}
SYMBOL nmos018 -352 480 R0
SYMATTR InstName M8
SYMATTR Value2 l={ll} w={wn} ad={450n*{wn}} as={450n*{wn}} pd={900n+{wn}} ps={1080n+{wn}}
SYMBOL inv -448 368 R0
SYMATTR InstName X1
SYMATTR SpiceLine ll=180n wn={wn} wp={wp}
SYMBOL inv -448 560 R0
SYMATTR InstName X2
SYMATTR SpiceLine ll=180n wn={wn} wp={wp}
SYMBOL inv -784 0 R0
SYMATTR InstName X3
SYMATTR SpiceLine ll=180n wn={wn} wp={wp}
SYMBOL inv -432 0 R0
SYMATTR InstName X4
SYMATTR SpiceLine ll=180n wn={wn} wp={wp}
TEXT -992 -400 Left 2 !.lib BU_180nm.lib
TEXT -120 -336 Left 2 ;Parametres requis: \nll=longueur \nwn=largeur_nmos \nwp=largeur_pmos
